obj01
  PyMOL2.5          3D                             0

 41 44  0  0  0  0  0  0  0  0999 V2000
  -24.0580   10.5870  -25.4370 C   0  0  0  0  0  0  0  0  0  0  0  0
  -24.8340   11.5380  -24.6100 N   0  0  0  0  0  0  0  0  0  0  0  0
  -24.8660   12.9300  -24.6620 C   0  0  0  0  0  0  0  0  0  0  0  0
  -25.6850   11.0920  -23.6810 N   0  0  0  0  0  0  0  0  0  0  0  0
  -25.7460   13.3430  -23.6450 C   0  0  0  0  0  0  0  0  0  0  0  0
  -30.8400   11.2070  -18.1200 N   0  0  0  0  0  0  0  0  0  0  0  0
  -26.2620   12.0950  -23.1010 C   0  0  0  0  0  0  0  0  0  0  0  0
  -24.6790   15.3910  -22.8730 N   0  0  0  0  0  0  0  0  0  0  0  0
  -27.2440   11.9310  -22.0000 C   0  0  0  0  0  0  0  0  0  0  0  0
  -23.2440   15.6400  -21.0940 N   0  0  0  0  0  0  0  0  0  0  0  0
  -27.0090   11.0030  -21.0400 C   0  0  0  0  0  0  0  0  0  0  0  0
  -24.7410   14.0190  -20.8870 N   0  0  0  0  0  0  0  0  0  0  0  0
  -27.9400   10.7650  -20.0630 C   0  0  0  0  0  0  0  0  0  0  0  0
  -29.0870   11.5690  -19.9580 C   0  0  0  0  0  0  0  0  0  0  0  0
  -29.3470   12.5310  -20.9400 C   0  0  0  0  0  0  0  0  0  0  0  0
  -28.4300   12.7310  -21.9410 C   0  0  0  0  0  0  0  0  0  0  0  0
  -30.0150   11.3290  -18.9330 C   0  0  0  0  0  0  0  0  0  0  0  0
  -25.9650   14.8400  -23.3530 C   0  0  0  0  0  0  0  0  0  0  0  0
  -24.2180   15.0000  -21.6840 C   0  0  0  0  0  0  0  0  0  0  0  0
  -23.0220   14.9490  -19.8520 C   0  0  0  0  0  0  0  0  0  0  0  0
  -22.1870   15.2720  -18.7650 C   0  0  0  0  0  0  0  0  0  0  0  0
  -22.2210   14.5860  -17.5370 C   0  0  0  0  0  0  0  0  0  0  0  0
  -23.2560   13.5430  -17.4160 C   0  0  0  0  0  0  0  0  0  0  0  0
  -24.1380   13.2570  -18.5750 C   0  0  0  0  0  0  0  0  0  0  0  0
  -23.9910   13.9580  -19.7310 C   0  0  0  0  0  0  0  0  0  0  0  0
  -24.1070   10.7910  -26.5100 H   0  0  0  0  0  0  0  0  0  0  0  0
  -24.3960    9.5540  -25.3080 H   0  0  0  0  0  0  0  0  0  0  0  0
  -23.0690   10.8000  -25.0200 H   0  0  0  0  0  0  0  0  0  0  0  0
  -24.3070   13.5230  -25.3780 H   0  0  0  0  0  0  0  0  0  0  0  0
  -26.0840   10.4350  -21.0330 H   0  0  0  0  0  0  0  0  0  0  0  0
  -27.7080   10.1310  -19.2120 H   0  0  0  0  0  0  0  0  0  0  0  0
  -30.1970   13.1940  -20.8100 H   0  0  0  0  0  0  0  0  0  0  0  0
  -28.6680   13.5100  -22.6580 H   0  0  0  0  0  0  0  0  0  0  0  0
  -26.7660   14.9710  -22.6190 H   0  0  0  0  0  0  0  0  0  0  0  0
  -26.1760   15.3290  -24.3080 H   0  0  0  0  0  0  0  0  0  0  0  0
  -24.4600   16.3520  -23.1330 H   0  0  0  0  0  0  0  0  0  0  0  0
  -21.3730   15.9830  -18.8590 H   0  0  0  0  0  0  0  0  0  0  0  0
  -21.5850   14.9420  -16.7320 H   0  0  0  0  0  0  0  0  0  0  0  0
  -23.4340   13.0900  -16.4460 H   0  0  0  0  0  0  0  0  0  0  0  0
  -24.8350   12.4340  -18.4520 H   0  0  0  0  0  0  0  0  0  0  0  0
  -25.5030   13.4010  -21.1640 H   0  0  0  0  0  0  0  0  0  0  0  0
  1  2  1  0  0  0  0
  1 26  1  0  0  0  0
  1 27  1  0  0  0  0
  1 28  1  0  0  0  0
  2  3  4  0  0  0  0
  2  4  4  0  0  0  0
  3  5  4  0  0  0  0
  3 29  1  0  0  0  0
  4  7  4  0  0  0  0
  5  7  4  0  0  0  0
  5 18  1  0  0  0  0
  6 17  3  0  0  0  0
  7  9  1  0  0  0  0
  8 18  1  0  0  0  0
  8 19  1  0  0  0  0
  8 36  1  0  0  0  0
  9 11  4  0  0  0  0
  9 16  4  0  0  0  0
 10 19  4  0  0  0  0
 10 20  4  0  0  0  0
 11 13  4  0  0  0  0
 11 30  1  0  0  0  0
 12 19  4  0  0  0  0
 12 25  4  0  0  0  0
 12 41  1  0  0  0  0
 13 14  4  0  0  0  0
 13 31  1  0  0  0  0
 14 15  4  0  0  0  0
 14 17  1  0  0  0  0
 15 16  4  0  0  0  0
 15 32  1  0  0  0  0
 16 33  1  0  0  0  0
 18 34  1  0  0  0  0
 18 35  1  0  0  0  0
 20 21  4  0  0  0  0
 20 25  4  0  0  0  0
 21 22  4  0  0  0  0
 21 37  1  0  0  0  0
 22 23  4  0  0  0  0
 22 38  1  0  0  0  0
 23 24  4  0  0  0  0
 23 39  1  0  0  0  0
 24 25  4  0  0  0  0
 24 40  1  0  0  0  0
M  END
$$$$
